Circuit: * C:\projects\LaserBodyRoll\Hardware\simulation\esd_analog_out.asc

Limiting rise time of source v1 to 2e-006
Limiting fall time of source v1 to 2e-006
Direct Newton iteration for .op point succeeded.

Date: Sat Oct 21 21:04:32 2017
Total elapsed time: 0.170 seconds.

tnom = 27
temp = 27
method = modified trap
totiter = 2608
traniter = 2563
tranpoints = 1170
accept = 1131
rejected = 39
matrix size = 11
fillins = 1
solver = Normal
Matrix Compiler1: 980 bytes object code size  0.2/0.1/[0.1]
Matrix Compiler2: 1.01 KB object code size  0.1/0.2/[0.1]


