Circuit: * C:\projects\LaserBodyRoll\Hardware\simulation\esd_analog_input.asc

Limiting rise time of source v1 to 2e-006
Limiting fall time of source v1 to 2e-006
Direct Newton iteration for .op point succeeded.

Date: Wed Dec 27 18:37:48 2017
Total elapsed time: 0.093 seconds.

tnom = 27
temp = 27
method = modified trap
totiter = 2377
traniter = 2372
tranpoints = 1134
accept = 1108
rejected = 26
matrix size = 7
fillins = 0
solver = Normal
Matrix Compiler1: 196 bytes object code size  0.1/0.0/[0.0]
Matrix Compiler2: 441 bytes object code size  0.1/0.1/[0.1]


