Circuit: * C:\projects\LaserBodyRoll\Hardware\simulation\input_protection.asc

Limiting rise time of source v1 to 2e-006
Limiting fall time of source v1 to 2e-006
Direct Newton iteration for .op point succeeded.

Date: Sat Oct 21 20:02:57 2017
Total elapsed time: 0.840 seconds.

tnom = 27
temp = 27
method = modified trap
totiter = 221547
traniter = 221539
tranpoints = 37601
accept = 28452
rejected = 9149
matrix size = 6
fillins = 0
solver = Normal
Matrix Compiler1: off  [0.0]/0.0/0.0
Matrix Compiler2: 368 bytes object code size  0.1/0.1/[0.0]


