Circuit: * C:\projects\LaserBodyRoll\Hardware\simulation\input_protection.asc

Limiting rise time of source v1 to 0.009998
Direct Newton iteration for .op point succeeded.

Date: Thu Dec 28 11:59:12 2017
Total elapsed time: 0.066 seconds.

tnom = 27
temp = 27
method = modified trap
totiter = 2172
traniter = 2165
tranpoints = 1061
accept = 1056
rejected = 5
matrix size = 6
fillins = 0
solver = Normal
Matrix Compiler1:       9 opcodes  0.1/[0.0]/0.0
Matrix Compiler2: 380 bytes object code size  0.7/0.1/[0.0]


