Circuit: * C:\projects\LaserBodyRoll\Hardware\simulation\output_protection.asc

Limiting rise time of source v1 to 0.009998
Direct Newton iteration for .op point succeeded.

Date: Thu Dec 28 12:07:19 2017
Total elapsed time: 0.116 seconds.

tnom = 27
temp = 27
method = modified trap
totiter = 2148
traniter = 2143
tranpoints = 1058
accept = 1054
rejected = 4
matrix size = 7
fillins = 0
solver = Normal
Matrix Compiler1: 196 bytes object code size  0.1/0.1/[0.1]
Matrix Compiler2:      38 opcodes  0.1/[0.1]/0.1


